                                                                                
 ASPEN PLUS   PLAT: WIN-X64   VER: 38.0                   12/31/2025  PAGE 1       
                                                                                
                              RUN CONTROL SECTION                               

 RUN CONTROL INFORMATION                 
 -----------------------

 THIS COPY OF ASPEN PLUS LICENSED TO NATIONAL TAIWAN UNIV            

 TYPE OF RUN: NEW 

 INPUT FILE NAME: _4435pnj.inm

 OUTPUT PROBLEM DATA FILE NAME: _4435pnj 
 LOCATED IN:                    


 PDF SIZE USED FOR INPUT TRANSLATION:
   NUMBER OF FILE RECORDS (PSIZE) =     0
   NUMBER OF IN-CORE RECORDS      =   256
 PSIZE NEEDED FOR SIMULATION    =   256

 CALLING PROGRAM NAME:          apmain  
 LOCATED IN: C:\Program Files\AspenTech\Aspen Plus V12.0\Engine\\xeq

 TGS ONLY RUN
 ASPEN PLUS   PLAT: WIN-X64   VER: 38.0                   12/31/2025  PAGE 2       
                                                                                
                          PHYSICAL PROPERTIES SECTION                           

 COMPONENTS                              
 ----------

  ID       TYPE  ALIAS          NAME
   COMP1    C     H2             HYDROGEN                        
   COMP2    C     CO2            CARBON-DIOXIDE                  
   COMP3    C     CH4O           METHANOL                        
   COMP4    C     H2O            WATER                           
 ASPEN PLUS   PLAT: WIN-X64   VER: 38.0                   12/31/2025  PAGE 3       
                                                                                
                        PHYSICAL PROPERTY TABLES SECTION                        

 PROPERTIES TABLE:   PURE-B              
 --------------------------

   SINGLE-PHASE PROPERTIES FOR THE MIXTURE:  (KMOL/HR     )
       COMP1     1.000     , COMP2     1.000     , COMP3     1.000    
       COMP4     1.000     , 

   VARIED VARIABLE(S):    TEMP      PRES    

   PROPERTY SET(S):       $PS-PURE

   PROPERTY OPTION SET:   NRTL      RENON (NRTL) / PR-MHV2                      
 ASPEN PLUS   PLAT: WIN-X64   VER: 38.0                   12/31/2025  PAGE 4       
                                                                                
                        PHYSICAL PROPERTY TABLES SECTION                        

 PROPERTIES TABLE:   PURE-B (CONTINUED)              

 -------------------------------------------------------------------------------
 !  TEMP      !  PRES      !  AVAIL     !  AVAIL     !  AVAIL     !  AVAIL     !
 !            !            !  VAPOR     !  VAPOR     !  VAPOR     !  VAPOR     !
 !            !            !  COMP1     !  COMP2     !  COMP3     !  COMP4     !
 !            !            !            !            !            !            !
 !  C         !  BAR       !  KJ/MOL    !  KJ/MOL    !  KJ/MOL    !  KJ/MOL    !
 !            !            !            !            !            !            !
 !============!============!============!============!============!============!
 !    24.8500 !    50.6625 !     9.7400 !  -385.4262 !  -157.4620 !  -222.4343 !
 !    34.8500 !    50.6625 !     9.7446 !  -385.4159 !  -157.3884 !  -222.3616 !
 !    44.8500 !    50.6625 !     9.7584 !  -385.3870 !  -157.3082 !  -222.2834 !
 !    54.8500 !    50.6625 !     9.7809 !  -385.3432 !  -157.2215 !  -222.1997 !
 !    64.8500 !    50.6625 !     9.8115 !  -385.2863 !  -157.1285 !  -222.1103 !
 !------------+------------+------------+------------+------------+------------!
 !    74.8500 !    50.6625 !     9.8497 !  -385.2173 !  -157.0293 !  -222.0151 !
 !    84.8500 !    50.6625 !     9.8952 !  -385.1372 !  -156.9237 !  -221.9138 !
 !    94.8500 !    50.6625 !     9.9476 !  -385.0467 !  -156.8120 !  -221.8058 !
 !   104.8500 !    50.6625 !    10.0065 !  -384.9463 !  -156.6939 !  -221.6905 !
 !   114.8500 !    50.6625 !    10.0715 !  -384.8365 !  -156.5693 !  -221.5667 !
 !------------+------------+------------+------------+------------+------------!
 !   124.8500 !    50.6625 !    10.1424 !  -384.7178 !  -156.4379 !  -221.4326 !
 !   134.8500 !    50.6625 !    10.2189 !  -384.5904 !  -156.2991 !  -221.2853 !
 !   144.8500 !    50.6625 !    10.3006 !  -384.4548 !  -156.1521 !  -221.1193 !
 !   154.8500 !    50.6625 !    10.3875 !  -384.3113 !  -155.9952 !  -220.9206 !
 !   164.8500 !    50.6625 !    10.4791 !  -384.1601 !  -155.8253 !  -220.4506 !
 !------------+------------+------------+------------+------------+------------!
 !   174.8500 !    50.6625 !    10.5753 !  -384.0015 !  -155.6361 !  -220.0628 !
 !   184.8500 !    50.6625 !    10.6759 !  -383.8358 !  -155.4107 !  -219.8046 !
 !   194.8500 !    50.6625 !    10.7807 !  -383.6632 !  -155.0667 !  -219.5768 !
 !   204.8500 !    50.6625 !    10.8895 !  -383.4839 !  -153.9248 !  -219.3625 !
 !   214.8500 !    50.6625 !    11.0021 !  -383.2981 !  -153.3894 !  -219.1551 !
 -------------------------------------------------------------------------------

 -------------------------------------------------------------------------------
 !  TEMP      !  PRES      !  AVAIL     !  AVAIL     !  AVAIL     !  AVAIL     !
 !            !            !  LIQUID    !  LIQUID    !  LIQUID    !  LIQUID    !
 !            !            !  COMP1     !  COMP2     !  COMP3     !  COMP4     !
 !            !            !            !            !            !            !
 !  C         !  BAR       !  KJ/MOL    !  KJ/MOL    !  KJ/MOL    !  KJ/MOL    !
 !            !            !            !            !            !            !
 !============!============!============!============!============!============!
 !    24.8500 !    50.6625 !    46.5564 !  -385.0854 !  -166.7818 !  -237.1614 !
 !    34.8500 !    50.6625 !    46.5610 !  -384.9065 !  -166.7314 !  -237.1475 !
 !    44.8500 !    50.6625 !    46.5748 !  -384.7139 !  -166.6515 !  -237.1104 !
 !    54.8500 !    50.6625 !    46.5973 !  -384.5014 !  -166.5404 !  -237.0507 !
 !    64.8500 !    50.6625 !    46.6279 !  -384.2686 !  -166.3968 !  -236.9690 !
 -------------------------------------------------------------------------------
 ASPEN PLUS   PLAT: WIN-X64   VER: 38.0                   12/31/2025  PAGE 5       
                                                                                
                        PHYSICAL PROPERTY TABLES SECTION                        

 PROPERTIES TABLE:   PURE-B (CONTINUED)              

 -------------------------------------------------------------------------------
 !  TEMP      !  PRES      !  AVAIL     !  AVAIL     !  AVAIL     !  AVAIL     !
 !            !            !  LIQUID    !  LIQUID    !  LIQUID    !  LIQUID    !
 !            !            !  COMP1     !  COMP2     !  COMP3     !  COMP4     !
 !            !            !            !            !            !            !
 !  C         !  BAR       !  KJ/MOL    !  KJ/MOL    !  KJ/MOL    !  KJ/MOL    !
 !            !            !            !            !            !            !
 !============!============!============!============!============!============!
 !    74.8500 !    50.6625 !    46.6663 !  -384.0153 !  -166.2198 !  -236.8658 !
 !    84.8500 !    50.6625 !    46.7119 !  -383.7412 !  -166.0092 !  -236.7414 !
 !    94.8500 !    50.6625 !    46.7645 !  -383.4462 !  -165.7652 !  -236.5965 !
 !   104.8500 !    50.6625 !    46.8237 !  -383.1301 !  -165.4883 !  -236.4313 !
 !   114.8500 !    50.6625 !    46.8890 !  -382.7930 !  -165.1793 !  -236.2463 !
 !------------+------------+------------+------------+------------+------------!
 !   124.8500 !    50.6625 !    46.9603 !  -382.4349 !  -164.8396 !  -236.0419 !
 !   134.8500 !    50.6625 !    47.0372 !  -382.0559 !  -164.4706 !  -235.8184 !
 !   144.8500 !    50.6625 !    47.1195 !  -381.6563 !  -164.0741 !  -235.5763 !
 !   154.8500 !    50.6625 !    47.2069 !  -381.2360 !  -163.6521 !  -235.3157 !
 !   164.8500 !    50.6625 !    47.2992 !  -380.7955 !  -163.2067 !  -235.0369 !
 !------------+------------+------------+------------+------------+------------!
 !   174.8500 !    50.6625 !    47.3962 !  -380.3350 !  -162.7401 !  -234.7403 !
 !   184.8500 !    50.6625 !    47.4975 !  -379.8548 !  -162.2546 !  -234.4258 !
 !   194.8500 !    50.6625 !    47.6032 !  -379.3552 !  -161.7519 !  -234.0936 !
 !   204.8500 !    50.6625 !    47.7129 !  -378.8366 !  -161.2326 !  -233.7437 !
 !   214.8500 !    50.6625 !    47.8266 !  -378.2993 !  -160.6934 !  -233.3760 !
 -------------------------------------------------------------------------------
 ASPEN PLUS   PLAT: WIN-X64   VER: 38.0                   12/31/2025  PAGE 6       
                                                                                
                        PHYSICAL PROPERTY TABLES SECTION                        

 PROPERTIES TABLE:   PURE-G              
 --------------------------

   SINGLE-PHASE PROPERTIES FOR THE MIXTURE:  (KMOL/HR     )
       COMP1     1.000     , COMP2     1.000     , COMP3     1.000    
       COMP4     1.000     , 

   VARIED VARIABLE(S):    TEMP      PRES    

   PROPERTY SET(S):       $PS-PURE

   PROPERTY OPTION SET:   NRTL      RENON (NRTL) / PR-MHV2                      
 ASPEN PLUS   PLAT: WIN-X64   VER: 38.0                   12/31/2025  PAGE 7       
                                                                                
                        PHYSICAL PROPERTY TABLES SECTION                        

 PROPERTIES TABLE:   PURE-G (CONTINUED)              

 -------------------------------------------------------------------------------
 !  TEMP      !  PRES      !  G         !  G         !  G         !  G         !
 !            !            !  VAPOR     !  VAPOR     !  VAPOR     !  VAPOR     !
 !            !            !  COMP1     !  COMP2     !  COMP3     !  COMP4     !
 !            !            !            !            !            !            !
 !  C         !  BAR       !  KJ/MOL    !  KJ/MOL    !  KJ/MOL    !  KJ/MOL    !
 !            !            !            !            !            !            !
 !============!============!============!============!============!============!
 !    24.8500 !    50.6625 !     9.7351 !  -385.4317 !  -157.4865 !  -222.4463 !
 !    25.8000 !    50.6625 !     9.7661 !  -385.3970 !  -157.3250 !  -222.3636 !
 !    26.7500 !    50.6625 !     9.7970 !  -385.3624 !  -157.1636 !  -222.2809 !
 !    27.7000 !    50.6625 !     9.8279 !  -385.3281 !  -157.0022 !  -222.1982 !
 !    28.6500 !    50.6625 !     9.8587 !  -385.2940 !  -156.8408 !  -222.1155 !
 !------------+------------+------------+------------+------------+------------!
 !    29.6000 !    50.6625 !     9.8893 !  -385.2600 !  -156.6794 !  -222.0328 !
 !    30.5500 !    50.6625 !     9.9199 !  -385.2262 !  -156.5180 !  -221.9502 !
 !    31.5000 !    50.6625 !     9.9504 !  -385.1927 !  -156.3567 !  -221.8675 !
 !    32.4500 !    50.6625 !     9.9808 !  -385.1593 !  -156.1954 !  -221.7849 !
 !    33.4000 !    50.6625 !    10.0112 !  -385.1261 !  -156.0341 !  -221.7023 !
 !------------+------------+------------+------------+------------+------------!
 !    34.3500 !    50.6625 !    10.0414 !  -385.0931 !  -155.8729 !  -221.6196 !
 !    35.3000 !    50.6625 !    10.0716 !  -385.0603 !  -155.7116 !  -221.5370 !
 !    36.2500 !    50.6625 !    10.1017 !  -385.0277 !  -155.5504 !  -221.4545 !
 !    37.2000 !    50.6625 !    10.1316 !  -384.9952 !  -155.3892 !  -221.3719 !
 !    38.1500 !    50.6625 !    10.1615 !  -384.9630 !  -155.2281 !  -221.2893 !
 !------------+------------+------------+------------+------------+------------!
 !    39.1000 !    50.6625 !    10.1914 !  -384.9309 !  -155.0669 !  -221.2068 !
 !    40.0500 !    50.6625 !    10.2211 !  -384.8990 !  -154.9058 !  -221.1242 !
 !    41.0000 !    50.6625 !    10.2508 !  -384.8673 !  -154.7447 !  -221.0417 !
 !    41.9500 !    50.6625 !    10.2803 !  -384.8358 !  -154.5836 !  -220.9592 !
 !    42.9000 !    50.6625 !    10.3098 !  -384.8044 !  -154.4225 !  -220.8767 !
 !------------+------------+------------+------------+------------+------------!
 !    43.8500 !    50.6625 !    10.3392 !  -384.7732 !  -154.2614 !  -220.7942 !
 !    44.8000 !    50.6625 !    10.3685 !  -384.7422 !  -154.1004 !  -220.7117 !
 !    45.7500 !    50.6625 !    10.3978 !  -384.7113 !  -153.9394 !  -220.6292 !
 !    46.7000 !    50.6625 !    10.4269 !  -384.6806 !  -153.7784 !  -220.5467 !
 !    47.6500 !    50.6625 !    10.4560 !  -384.6501 !  -153.6174 !  -220.4643 !
 !------------+------------+------------+------------+------------+------------!
 !    48.6000 !    50.6625 !    10.4850 !  -384.6197 !  -153.4564 !  -220.3818 !
 !    49.5500 !    50.6625 !    10.5139 !  -384.5895 !  -153.2955 !  -220.2994 !
 !    50.5000 !    50.6625 !    10.5427 !  -384.5594 !  -153.1346 !  -220.2169 !
 !    51.4500 !    50.6625 !    10.5715 !  -384.5295 !  -152.9736 !  -220.1345 !
 !    52.4000 !    50.6625 !    10.6001 !  -384.4998 !  -152.8127 !  -220.0521 !
 !------------+------------+------------+------------+------------+------------!
 !    53.3500 !    50.6625 !    10.6287 !  -384.4702 !  -152.6519 !  -219.9697 !
 !    54.3000 !    50.6625 !    10.6572 !  -384.4408 !  -152.4910 !  -219.8872 !
 !    55.2500 !    50.6625 !    10.6856 !  -384.4115 !  -152.3301 !  -219.8049 !
 !    56.2000 !    50.6625 !    10.7140 !  -384.3824 !  -152.1693 !  -219.7225 !
 !    57.1500 !    50.6625 !    10.7422 !  -384.3534 !  -152.0085 !  -219.6401 !
 -------------------------------------------------------------------------------
 ASPEN PLUS   PLAT: WIN-X64   VER: 38.0                   12/31/2025  PAGE 8       
                                                                                
                        PHYSICAL PROPERTY TABLES SECTION                        

 PROPERTIES TABLE:   PURE-G (CONTINUED)              

 -------------------------------------------------------------------------------
 !  TEMP      !  PRES      !  G         !  G         !  G         !  G         !
 !            !            !  VAPOR     !  VAPOR     !  VAPOR     !  VAPOR     !
 !            !            !  COMP1     !  COMP2     !  COMP3     !  COMP4     !
 !            !            !            !            !            !            !
 !  C         !  BAR       !  KJ/MOL    !  KJ/MOL    !  KJ/MOL    !  KJ/MOL    !
 !            !            !            !            !            !            !
 !============!============!============!============!============!============!
 !    58.1000 !    50.6625 !    10.7704 !  -384.3246 !  -151.8477 !  -219.5577 !
 !    59.0500 !    50.6625 !    10.7985 !  -384.2959 !  -151.6869 !  -219.4753 !
 !    60.0000 !    50.6625 !    10.8265 !  -384.2674 !  -151.5261 !  -219.3930 !
 !    60.9500 !    50.6625 !    10.8545 !  -384.2390 !  -151.3653 !  -219.3106 !
 !    61.9000 !    50.6625 !    10.8823 !  -384.2108 !  -151.2046 !  -219.2282 !
 !------------+------------+------------+------------+------------+------------!
 !    62.8500 !    50.6625 !    10.9101 !  -384.1827 !  -151.0438 !  -219.1459 !
 !    63.8000 !    50.6625 !    10.9378 !  -384.1548 !  -150.8831 !  -219.0635 !
 !    64.7500 !    50.6625 !    10.9654 !  -384.1270 !  -150.7224 !  -218.9812 !
 !    65.7000 !    50.6625 !    10.9930 !  -384.0994 !  -150.5617 !  -218.8989 !
 !    66.6500 !    50.6625 !    11.0205 !  -384.0718 !  -150.4010 !  -218.8165 !
 !------------+------------+------------+------------+------------+------------!
 !    67.6000 !    50.6625 !    11.0478 !  -384.0445 !  -150.2403 !  -218.7342 !
 !    68.5500 !    50.6625 !    11.0752 !  -384.0173 !  -150.0796 !  -218.6519 !
 !    69.5000 !    50.6625 !    11.1024 !  -383.9902 !  -149.9189 !  -218.5696 !
 !    70.4500 !    50.6625 !    11.1296 !  -383.9632 !  -149.7583 !  -218.4873 !
 !    71.4000 !    50.6625 !    11.1566 !  -383.9364 !  -149.5976 !  -218.4049 !
 !------------+------------+------------+------------+------------+------------!
 !    72.3500 !    50.6625 !    11.1837 !  -383.9097 !  -149.4370 !  -218.3226 !
 !    73.3000 !    50.6625 !    11.2106 !  -383.8832 !  -149.2764 !  -218.2403 !
 !    74.2500 !    50.6625 !    11.2374 !  -383.8568 !  -149.1158 !  -218.1580 !
 !    75.2000 !    50.6625 !    11.2642 !  -383.8306 !  -148.9551 !  -218.0757 !
 !    76.1500 !    50.6625 !    11.2909 !  -383.8044 !  -148.7945 !  -217.9934 !
 !------------+------------+------------+------------+------------+------------!
 !    77.1000 !    50.6625 !    11.3175 !  -383.7784 !  -148.6339 !  -217.9111 !
 !    78.0500 !    50.6625 !    11.3441 !  -383.7526 !  -148.4734 !  -217.8288 !
 !    79.0000 !    50.6625 !    11.3706 !  -383.7269 !  -148.3128 !  -217.7465 !
 !    79.9500 !    50.6625 !    11.3970 !  -383.7013 !  -148.1522 !  -217.6642 !
 !    80.9000 !    50.6625 !    11.4233 !  -383.6758 !  -147.9916 !  -217.5819 !
 !------------+------------+------------+------------+------------+------------!
 !    81.8500 !    50.6625 !    11.4496 !  -383.6505 !  -147.8311 !  -217.4996 !
 !    82.8000 !    50.6625 !    11.4757 !  -383.6253 !  -147.6705 !  -217.4174 !
 !    83.7500 !    50.6625 !    11.5018 !  -383.6002 !  -147.5099 !  -217.3351 !
 !    84.7000 !    50.6625 !    11.5279 !  -383.5753 !  -147.3494 !  -217.2528 !
 !    85.6500 !    50.6625 !    11.5538 !  -383.5504 !  -147.1888 !  -217.1705 !
 !------------+------------+------------+------------+------------+------------!
 !    86.6000 !    50.6625 !    11.5797 !  -383.5258 !  -147.0283 !  -217.0882 !
 !    87.5500 !    50.6625 !    11.6055 !  -383.5012 !  -146.8678 !  -217.0059 !
 !    88.5000 !    50.6625 !    11.6312 !  -383.4768 !  -146.7072 !  -216.9236 !
 !    89.4500 !    50.6625 !    11.6569 !  -383.4525 !  -146.5467 !  -216.8413 !
 !    90.4000 !    50.6625 !    11.6825 !  -383.4283 !  -146.3862 !  -216.7590 !
 -------------------------------------------------------------------------------
 ASPEN PLUS   PLAT: WIN-X64   VER: 38.0                   12/31/2025  PAGE 9       
                                                                                
                        PHYSICAL PROPERTY TABLES SECTION                        

 PROPERTIES TABLE:   PURE-G (CONTINUED)              

 -------------------------------------------------------------------------------
 !  TEMP      !  PRES      !  G         !  G         !  G         !  G         !
 !            !            !  VAPOR     !  VAPOR     !  VAPOR     !  VAPOR     !
 !            !            !  COMP1     !  COMP2     !  COMP3     !  COMP4     !
 !            !            !            !            !            !            !
 !  C         !  BAR       !  KJ/MOL    !  KJ/MOL    !  KJ/MOL    !  KJ/MOL    !
 !            !            !            !            !            !            !
 !============!============!============!============!============!============!
 !    91.3500 !    50.6625 !    11.7080 !  -383.4042 !  -146.2256 !  -216.6767 !
 !    92.3000 !    50.6625 !    11.7335 !  -383.3803 !  -146.0651 !  -216.5944 !
 !    93.2500 !    50.6625 !    11.7588 !  -383.3565 !  -145.9046 !  -216.5121 !
 !    94.2000 !    50.6625 !    11.7841 !  -383.3328 !  -145.7440 !  -216.4298 !
 !    95.1500 !    50.6625 !    11.8093 !  -383.3093 !  -145.5835 !  -216.3475 !
 !------------+------------+------------+------------+------------+------------!
 !    96.1000 !    50.6625 !    11.8345 !  -383.2859 !  -145.4230 !  -216.2651 !
 !    97.0500 !    50.6625 !    11.8596 !  -383.2626 !  -145.2625 !  -216.1828 !
 !    98.0000 !    50.6625 !    11.8846 !  -383.2394 !  -145.1019 !  -216.1005 !
 !    98.9500 !    50.6625 !    11.9095 !  -383.2163 !  -144.9414 !  -216.0182 !
 !    99.9000 !    50.6625 !    11.9344 !  -383.1934 !  -144.7809 !  -215.9358 !
 !------------+------------+------------+------------+------------+------------!
 !   100.8500 !    50.6625 !    11.9592 !  -383.1706 !  -144.6203 !  -215.8535 !
 !   101.8000 !    50.6625 !    11.9839 !  -383.1479 !  -144.4598 !  -215.7712 !
 !   102.7500 !    50.6625 !    12.0086 !  -383.1253 !  -144.2992 !  -215.6888 !
 !   103.7000 !    50.6625 !    12.0332 !  -383.1028 !  -144.1387 !  -215.6065 !
 !   104.6500 !    50.6625 !    12.0577 !  -383.0805 !  -143.9781 !  -215.5241 !
 !------------+------------+------------+------------+------------+------------!
 !   105.6000 !    50.6625 !    12.0821 !  -383.0583 !  -143.8176 !  -215.4417 !
 !   106.5500 !    50.6625 !    12.1065 !  -383.0362 !  -143.6570 !  -215.3594 !
 !   107.5000 !    50.6625 !    12.1308 !  -383.0142 !  -143.4964 !  -215.2770 !
 !   108.4500 !    50.6625 !    12.1550 !  -382.9923 !  -143.3359 !  -215.1946 !
 !   109.4000 !    50.6625 !    12.1792 !  -382.9706 !  -143.1753 !  -215.1122 !
 !------------+------------+------------+------------+------------+------------!
 !   110.3500 !    50.6625 !    12.2033 !  -382.9489 !  -143.0147 !  -215.0298 !
 !   111.3000 !    50.6625 !    12.2273 !  -382.9274 !  -142.8541 !  -214.9474 !
 !   112.2500 !    50.6625 !    12.2513 !  -382.9060 !  -142.6935 !  -214.8650 !
 !   113.2000 !    50.6625 !    12.2752 !  -382.8847 !  -142.5329 !  -214.7826 !
 !   114.1500 !    50.6625 !    12.2990 !  -382.8636 !  -142.3723 !  -214.7002 !
 !------------+------------+------------+------------+------------+------------!
 !   115.1000 !    50.6625 !    12.3228 !  -382.8425 !  -142.2116 !  -214.6177 !
 !   116.0500 !    50.6625 !    12.3464 !  -382.8216 !  -142.0510 !  -214.5353 !
 !   117.0000 !    50.6625 !    12.3701 !  -382.8008 !  -141.8903 !  -214.4528 !
 !   117.9500 !    50.6625 !    12.3936 !  -382.7801 !  -141.7297 !  -214.3704 !
 !   118.9000 !    50.6625 !    12.4171 !  -382.7595 !  -141.5690 !  -214.2879 !
 !------------+------------+------------+------------+------------+------------!
 !   119.8500 !    50.6625 !    12.4405 !  -382.7390 !  -141.4083 !  -214.2054 !
 !   120.8000 !    50.6625 !    12.4638 !  -382.7186 !  -141.2476 !  -214.1229 !
 !   121.7500 !    50.6625 !    12.4871 !  -382.6984 !  -141.0869 !  -214.0404 !
 !   122.7000 !    50.6625 !    12.5103 !  -382.6782 !  -140.9261 !  -213.9579 !
 !   123.6500 !    50.6625 !    12.5335 !  -382.6582 !  -140.7654 !  -213.8753 !
 -------------------------------------------------------------------------------
 ASPEN PLUS   PLAT: WIN-X64   VER: 38.0                   12/31/2025  PAGE 10      
                                                                                
                        PHYSICAL PROPERTY TABLES SECTION                        

 PROPERTIES TABLE:   PURE-G (CONTINUED)              

 -------------------------------------------------------------------------------
 !  TEMP      !  PRES      !  G         !  G         !  G         !  G         !
 !            !            !  VAPOR     !  VAPOR     !  VAPOR     !  VAPOR     !
 !            !            !  COMP1     !  COMP2     !  COMP3     !  COMP4     !
 !            !            !            !            !            !            !
 !  C         !  BAR       !  KJ/MOL    !  KJ/MOL    !  KJ/MOL    !  KJ/MOL    !
 !            !            !            !            !            !            !
 !============!============!============!============!============!============!
 !   124.6000 !    50.6625 !    12.5566 !  -382.6383 !  -140.6046 !  -213.7928 !
 !   125.5500 !    50.6625 !    12.5796 !  -382.6184 !  -140.4439 !  -213.7102 !
 !   126.5000 !    50.6625 !    12.6025 !  -382.5988 !  -140.2831 !  -213.6276 !
 !   127.4500 !    50.6625 !    12.6254 !  -382.5792 !  -140.1223 !  -213.5451 !
 !   128.4000 !    50.6625 !    12.6482 !  -382.5597 !  -139.9614 !  -213.4625 !
 !------------+------------+------------+------------+------------+------------!
 !   129.3500 !    50.6625 !    12.6709 !  -382.5403 !  -139.8006 !  -213.3799 !
 !   130.3000 !    50.6625 !    12.6936 !  -382.5211 !  -139.6397 !  -213.2972 !
 !   131.2500 !    50.6625 !    12.7162 !  -382.5019 !  -139.4788 !  -213.2146 !
 !   132.2000 !    50.6625 !    12.7388 !  -382.4829 !  -139.3179 !  -213.1319 !
 !   133.1500 !    50.6625 !    12.7613 !  -382.4640 !  -139.1570 !  -213.0493 !
 !------------+------------+------------+------------+------------+------------!
 !   134.1000 !    50.6625 !    12.7837 !  -382.4451 !  -138.9961 !  -212.9666 !
 !   135.0500 !    50.6625 !    12.8060 !  -382.4264 !  -138.8351 !  -212.8839 !
 !   136.0000 !    50.6625 !    12.8283 !  -382.4078 !  -138.6741 !  -212.8011 !
 !   136.9500 !    50.6625 !    12.8506 !  -382.3893 !  -138.5131 !  -212.7184 !
 !   137.9000 !    50.6625 !    12.8727 !  -382.3709 !  -138.3521 !  -212.6356 !
 !------------+------------+------------+------------+------------+------------!
 !   138.8500 !    50.6625 !    12.8948 !  -382.3526 !  -138.1910 !  -212.5529 !
 !   139.8000 !    50.6625 !    12.9168 !  -382.3345 !  -138.0299 !  -212.4701 !
 !   140.7500 !    50.6625 !    12.9388 !  -382.3164 !  -137.8688 !  -212.3873 !
 !   141.7000 !    50.6625 !    12.9607 !  -382.2984 !  -137.7076 !  -212.3044 !
 !   142.6500 !    50.6625 !    12.9825 !  -382.2806 !  -137.5465 !  -212.2216 !
 !------------+------------+------------+------------+------------+------------!
 !   143.6000 !    50.6625 !    13.0043 !  -382.2628 !  -137.3853 !  -212.1387 !
 !   144.5500 !    50.6625 !    13.0260 !  -382.2452 !  -137.2241 !  -212.0558 !
 !   145.5000 !    50.6625 !    13.0477 !  -382.2277 !  -137.0628 !  -211.9729 !
 !   146.4500 !    50.6625 !    13.0692 !  -382.2102 !  -136.9015 !  -211.8900 !
 !   147.4000 !    50.6625 !    13.0908 !  -382.1929 !  -136.7402 !  -211.8070 !
 !------------+------------+------------+------------+------------+------------!
 !   148.3500 !    50.6625 !    13.1122 !  -382.1757 !  -136.5788 !  -211.7240 !
 !   149.3000 !    50.6625 !    13.1336 !  -382.1585 !  -136.4175 !  -211.6410 !
 !   150.2500 !    50.6625 !    13.1549 !  -382.1415 !  -136.2560 !  -211.5580 !
 !   151.2000 !    50.6625 !    13.1762 !  -382.1246 !  -136.0946 !  -211.4749 !
 !   152.1500 !    50.6625 !    13.1974 !  -382.1078 !  -135.9331 !  -211.3918 !
 !------------+------------+------------+------------+------------+------------!
 !   153.1000 !    50.6625 !    13.2186 !  -382.0911 !  -135.7716 !  -211.3087 !
 !   154.0500 !    50.6625 !    13.2396 !  -382.0745 !  -135.6100 !  -211.2255 !
 !   155.0000 !    50.6625 !    13.2606 !  -382.0580 !  -135.4484 !  -211.1424 !
 !   155.9500 !    50.6625 !    13.2816 !  -382.0416 !  -135.2868 !  -211.0592 !
 !   156.9000 !    50.6625 !    13.3025 !  -382.0253 !  -135.1251 !  -210.9759 !
 -------------------------------------------------------------------------------
 ASPEN PLUS   PLAT: WIN-X64   VER: 38.0                   12/31/2025  PAGE 11      
                                                                                
                        PHYSICAL PROPERTY TABLES SECTION                        

 PROPERTIES TABLE:   PURE-G (CONTINUED)              

 -------------------------------------------------------------------------------
 !  TEMP      !  PRES      !  G         !  G         !  G         !  G         !
 !            !            !  VAPOR     !  VAPOR     !  VAPOR     !  VAPOR     !
 !            !            !  COMP1     !  COMP2     !  COMP3     !  COMP4     !
 !            !            !            !            !            !            !
 !  C         !  BAR       !  KJ/MOL    !  KJ/MOL    !  KJ/MOL    !  KJ/MOL    !
 !            !            !            !            !            !            !
 !============!============!============!============!============!============!
 !   157.8500 !    50.6625 !    13.3233 !  -382.0091 !  -134.9634 !  -210.8926 !
 !   158.8000 !    50.6625 !    13.3441 !  -381.9930 !  -134.8016 !  -210.8093 !
 !   159.7500 !    50.6625 !    13.3648 !  -381.9770 !  -134.6398 !  -210.7260 !
 !   160.7000 !    50.6625 !    13.3855 !  -381.9611 !  -134.4780 !  -210.6425 !
 !   161.6500 !    50.6625 !    13.4060 !  -381.9453 !  -134.3161 !  -210.5591 !
 !------------+------------+------------+------------+------------+------------!
 !   162.6000 !    50.6625 !    13.4266 !  -381.9296 !  -134.1541 !  -210.4756 !
 !   163.5500 !    50.6625 !    13.4470 !  -381.9141 !  -133.9921 !  -210.3920 !
 !   164.5000 !    50.6625 !    13.4674 !  -381.8986 !  -133.8301 !  -210.3210 !
 !   165.4500 !    50.6625 !    13.4878 !  -381.8832 !  -133.6680 !  -210.2520 !
 !   166.4000 !    50.6625 !    13.5081 !  -381.8679 !  -133.5059 !  -210.1835 !
 !------------+------------+------------+------------+------------+------------!
 !   167.3500 !    50.6625 !    13.5283 !  -381.8527 !  -133.3437 !  -210.1153 !
 !   168.3000 !    50.6625 !    13.5484 !  -381.8376 !  -133.1815 !  -210.0473 !
 !   169.2500 !    50.6625 !    13.5685 !  -381.8226 !  -133.0192 !  -209.9796 !
 !   170.2000 !    50.6625 !    13.5886 !  -381.8077 !  -132.8568 !  -209.9121 !
 !   171.1500 !    50.6625 !    13.6086 !  -381.7929 !  -132.6944 !  -209.8449 !
 !------------+------------+------------+------------+------------+------------!
 !   172.1000 !    50.6625 !    13.6285 !  -381.7783 !  -132.5320 !  -209.7778 !
 !   173.0500 !    50.6625 !    13.6484 !  -381.7637 !  -132.3695 !  -209.7110 !
 !   174.0000 !    50.6625 !    13.6682 !  -381.7492 !  -132.2069 !  -209.6443 !
 !   174.9500 !    50.6625 !    13.6879 !  -381.7348 !  -132.0442 !  -209.5778 !
 !   175.9000 !    50.6625 !    13.7076 !  -381.7205 !  -131.8815 !  -209.5115 !
 !------------+------------+------------+------------+------------+------------!
 !   176.8500 !    50.6625 !    13.7272 !  -381.7063 !  -131.7188 !  -209.4453 !
 !   177.8000 !    50.6625 !    13.7468 !  -381.6921 !  -131.5559 !  -209.3793 !
 !   178.7500 !    50.6625 !    13.7663 !  -381.6781 !  -131.3930 !  -209.3135 !
 !   179.7000 !    50.6625 !    13.7857 !  -381.6642 !  -131.2300 !  -209.2478 !
 !   180.6500 !    50.6625 !    13.8051 !  -381.6504 !  -131.0670 !  -209.1823 !
 !------------+------------+------------+------------+------------+------------!
 !   181.6000 !    50.6625 !    13.8244 !  -381.6367 !  -130.9039 !  -209.1169 !
 !   182.5500 !    50.6625 !    13.8437 !  -381.6231 !  -130.7407 !  -209.0516 !
 !   183.5000 !    50.6625 !    13.8629 !  -381.6095 !  -130.5774 !  -208.9865 !
 !   184.4500 !    50.6625 !    13.8821 !  -381.5961 !  -130.4141 !  -208.9216 !
 !   185.4000 !    50.6625 !    13.9012 !  -381.5828 !  -130.2506 !  -208.8567 !
 !------------+------------+------------+------------+------------+------------!
 !   186.3500 !    50.6625 !    13.9202 !  -381.5695 !  -130.0871 !  -208.7920 !
 !   187.3000 !    50.6625 !    13.9392 !  -381.5564 !  -129.9235 !  -208.7275 !
 !   188.2500 !    50.6625 !    13.9581 !  -381.5433 !  -129.7598 !  -208.6630 !
 !   189.2000 !    50.6625 !    13.9770 !  -381.5304 !  -129.5961 !  -208.5987 !
 !   190.1500 !    50.6625 !    13.9958 !  -381.5175 !  -129.4322 !  -208.5345 !
 -------------------------------------------------------------------------------
 ASPEN PLUS   PLAT: WIN-X64   VER: 38.0                   12/31/2025  PAGE 12      
                                                                                
                        PHYSICAL PROPERTY TABLES SECTION                        

 PROPERTIES TABLE:   PURE-G (CONTINUED)              

 -------------------------------------------------------------------------------
 !  TEMP      !  PRES      !  G         !  G         !  G         !  G         !
 !            !            !  VAPOR     !  VAPOR     !  VAPOR     !  VAPOR     !
 !            !            !  COMP1     !  COMP2     !  COMP3     !  COMP4     !
 !            !            !            !            !            !            !
 !  C         !  BAR       !  KJ/MOL    !  KJ/MOL    !  KJ/MOL    !  KJ/MOL    !
 !            !            !            !            !            !            !
 !============!============!============!============!============!============!
 !   191.1000 !    50.6625 !    14.0146 !  -381.5047 !  -129.2682 !  -208.4705 !
 !   192.0500 !    50.6625 !    14.0333 !  -381.4921 !  -129.1041 !  -208.4065 !
 !   193.0000 !    50.6625 !    14.0519 !  -381.4795 !  -128.9399 !  -208.3427 !
 !   193.9500 !    50.6625 !    14.0705 !  -381.4670 !  -128.7756 !  -208.2790 !
 !   194.9000 !    50.6625 !    14.0890 !  -381.4546 !  -128.6112 !  -208.2155 !
 !------------+------------+------------+------------+------------+------------!
 !   195.8500 !    50.6625 !    14.1075 !  -381.4423 !  -128.4466 !  -208.1520 !
 !   196.8000 !    50.6625 !    14.1259 !  -381.4301 !  -128.2819 !  -208.0886 !
 !   197.7500 !    50.6625 !    14.1442 !  -381.4180 !  -128.1350 !  -208.0254 !
 !   198.7000 !    50.6625 !    14.1625 !  -381.4060 !  -127.9901 !  -207.9623 !
 !   199.6500 !    50.6625 !    14.1808 !  -381.3941 !  -127.8458 !  -207.8993 !
 !------------+------------+------------+------------+------------+------------!
 !   200.6000 !    50.6625 !    14.1990 !  -381.3822 !  -127.7021 !  -207.8364 !
 !   201.5500 !    50.6625 !    14.2171 !  -381.3705 !  -127.5588 !  -207.7736 !
 !   202.5000 !    50.6625 !    14.2352 !  -381.3588 !  -127.4158 !  -207.7109 !
 !   203.4500 !    50.6625 !    14.2532 !  -381.3473 !  -127.2733 !  -207.6483 !
 !   204.4000 !    50.6625 !    14.2711 !  -381.3358 !  -127.1311 !  -207.5859 !
 !------------+------------+------------+------------+------------+------------!
 !   205.3500 !    50.6625 !    14.2890 !  -381.3244 !  -126.9892 !  -207.5235 !
 !   206.3000 !    50.6625 !    14.3069 !  -381.3132 !  -126.8477 !  -207.4613 !
 !   207.2500 !    50.6625 !    14.3247 !  -381.3020 !  -126.7064 !  -207.3991 !
 !   208.2000 !    50.6625 !    14.3424 !  -381.2909 !  -126.5654 !  -207.3371 !
 !   209.1500 !    50.6625 !    14.3601 !  -381.2799 !  -126.4247 !  -207.2751 !
 !------------+------------+------------+------------+------------+------------!
 !   210.1000 !    50.6625 !    14.3777 !  -381.2690 !  -126.2842 !  -207.2133 !
 !   211.0500 !    50.6625 !    14.3953 !  -381.2581 !  -126.1440 !  -207.1515 !
 !   212.0000 !    50.6625 !    14.4128 !  -381.2474 !  -126.0041 !  -207.0899 !
 !   212.9500 !    50.6625 !    14.4303 !  -381.2367 !  -125.8644 !  -207.0283 !
 !   213.9000 !    50.6625 !    14.4477 !  -381.2262 !  -125.7249 !  -206.9669 !
 !------------+------------+------------+------------+------------+------------!
 !   214.8500 !    50.6625 !    14.4651 !  -381.2157 !  -125.5856 !  -206.9056 !
 -------------------------------------------------------------------------------
 ASPEN PLUS   PLAT: WIN-X64   VER: 38.0                   12/31/2025  PAGE 13      
                                                                                
                        PHYSICAL PROPERTY TABLES SECTION                        

 PROPERTIES TABLE:   PURE-G (CONTINUED)              

 -------------------------------------------------------------------------------
 !  TEMP      !  PRES      !  G         !  G         !  G         !  G         !
 !            !            !  LIQUID    !  LIQUID    !  LIQUID    !  LIQUID    !
 !            !            !  COMP1     !  COMP2     !  COMP3     !  COMP4     !
 !            !            !            !            !            !            !
 !  C         !  BAR       !  KJ/MOL    !  KJ/MOL    !  KJ/MOL    !  KJ/MOL    !
 !            !            !            !            !            !            !
 !============!============!============!============!============!============!
 !    24.8500 !    50.6625 !    46.5443 !  -385.0946 !  -166.8179 !  -237.1859 !
 !    25.8000 !    50.6625 !    46.6206 !  -385.0278 !  -166.5862 !  -237.0307 !
 !    26.7500 !    50.6625 !    46.6969 !  -384.9611 !  -166.3547 !  -236.8758 !
 !    27.7000 !    50.6625 !    46.7730 !  -384.8946 !  -166.1236 !  -236.7211 !
 !    28.6500 !    50.6625 !    46.8490 !  -384.8283 !  -165.8927 !  -236.5667 !
 !------------+------------+------------+------------+------------+------------!
 !    29.6000 !    50.6625 !    46.9250 !  -384.7622 !  -165.6620 !  -236.4124 !
 !    30.5500 !    50.6625 !    47.0009 !  -384.6963 !  -165.4317 !  -236.2584 !
 !    31.5000 !    50.6625 !    47.0767 !  -384.6304 !  -165.2016 !  -236.1047 !
 !    32.4500 !    50.6625 !    47.1524 !  -384.5645 !  -164.9718 !  -235.9511 !
 !    33.4000 !    50.6625 !    47.2280 !  -384.4984 !  -164.7422 !  -235.7978 !
 !------------+------------+------------+------------+------------+------------!
 !    34.3500 !    50.6625 !    47.3035 !  -384.4321 !  -164.5129 !  -235.6447 !
 !    35.3000 !    50.6625 !    47.3790 !  -384.3657 !  -164.2839 !  -235.4918 !
 !    36.2500 !    50.6625 !    47.4544 !  -384.2991 !  -164.0551 !  -235.3392 !
 !    37.2000 !    50.6625 !    47.5296 !  -384.2324 !  -163.8267 !  -235.1867 !
 !    38.1500 !    50.6625 !    47.6048 !  -384.1656 !  -163.5984 !  -235.0345 !
 !------------+------------+------------+------------+------------+------------!
 !    39.1000 !    50.6625 !    47.6799 !  -384.0985 !  -163.3705 !  -234.8825 !
 !    40.0500 !    50.6625 !    47.7550 !  -384.0314 !  -163.1428 !  -234.7308 !
 !    41.0000 !    50.6625 !    47.8299 !  -383.9640 !  -162.9153 !  -234.5792 !
 !    41.9500 !    50.6625 !    47.9048 !  -383.8965 !  -162.6881 !  -234.4279 !
 !    42.9000 !    50.6625 !    47.9795 !  -383.8289 !  -162.4612 !  -234.2768 !
 !------------+------------+------------+------------+------------+------------!
 !    43.8500 !    50.6625 !    48.0542 !  -383.7611 !  -162.2346 !  -234.1258 !
 !    44.8000 !    50.6625 !    48.1288 !  -383.6932 !  -162.0082 !  -233.9752 !
 !    45.7500 !    50.6625 !    48.2034 !  -383.6251 !  -161.7820 !  -233.8247 !
 !    46.7000 !    50.6625 !    48.2778 !  -383.5568 !  -161.5561 !  -233.6744 !
 !    47.6500 !    50.6625 !    48.3522 !  -383.4884 !  -161.3305 !  -233.5244 !
 !------------+------------+------------+------------+------------+------------!
 !    48.6000 !    50.6625 !    48.4264 !  -383.4199 !  -161.1051 !  -233.3745 !
 !    49.5500 !    50.6625 !    48.5006 !  -383.3512 !  -160.8800 !  -233.2249 !
 !    50.5000 !    50.6625 !    48.5747 !  -383.2823 !  -160.6552 !  -233.0755 !
 !    51.4500 !    50.6625 !    48.6488 !  -383.2133 !  -160.4306 !  -232.9262 !
 !    52.4000 !    50.6625 !    48.7227 !  -383.1441 !  -160.2063 !  -232.7772 !
 !------------+------------+------------+------------+------------+------------!
 !    53.3500 !    50.6625 !    48.7966 !  -383.0748 !  -159.9822 !  -232.6284 !
 !    54.3000 !    50.6625 !    48.8704 !  -383.0054 !  -159.7583 !  -232.4799 !
 !    55.2500 !    50.6625 !    48.9441 !  -382.9358 !  -159.5348 !  -232.3315 !
 !    56.2000 !    50.6625 !    49.0177 !  -382.8660 !  -159.3114 !  -232.1833 !
 !    57.1500 !    50.6625 !    49.0913 !  -382.7961 !  -159.0884 !  -232.0353 !
 -------------------------------------------------------------------------------
 ASPEN PLUS   PLAT: WIN-X64   VER: 38.0                   12/31/2025  PAGE 14      
                                                                                
                        PHYSICAL PROPERTY TABLES SECTION                        

 PROPERTIES TABLE:   PURE-G (CONTINUED)              

 -------------------------------------------------------------------------------
 !  TEMP      !  PRES      !  G         !  G         !  G         !  G         !
 !            !            !  LIQUID    !  LIQUID    !  LIQUID    !  LIQUID    !
 !            !            !  COMP1     !  COMP2     !  COMP3     !  COMP4     !
 !            !            !            !            !            !            !
 !  C         !  BAR       !  KJ/MOL    !  KJ/MOL    !  KJ/MOL    !  KJ/MOL    !
 !            !            !            !            !            !            !
 !============!============!============!============!============!============!
 !    58.1000 !    50.6625 !    49.1647 !  -382.7260 !  -158.8656 !  -231.8875 !
 !    59.0500 !    50.6625 !    49.2381 !  -382.6558 !  -158.6430 !  -231.7400 !
 !    60.0000 !    50.6625 !    49.3114 !  -382.5855 !  -158.4207 !  -231.5926 !
 !    60.9500 !    50.6625 !    49.3847 !  -382.5150 !  -158.1986 !  -231.4454 !
 !    61.9000 !    50.6625 !    49.4578 !  -382.4443 !  -157.9768 !  -231.2985 !
 !------------+------------+------------+------------+------------+------------!
 !    62.8500 !    50.6625 !    49.5309 !  -382.3735 !  -157.7553 !  -231.1517 !
 !    63.8000 !    50.6625 !    49.6039 !  -382.3026 !  -157.5340 !  -231.0051 !
 !    64.7500 !    50.6625 !    49.6768 !  -382.2315 !  -157.3129 !  -230.8588 !
 !    65.7000 !    50.6625 !    49.7496 !  -382.1602 !  -157.0921 !  -230.7126 !
 !    66.6500 !    50.6625 !    49.8224 !  -382.0888 !  -156.8715 !  -230.5666 !
 !------------+------------+------------+------------+------------+------------!
 !    67.6000 !    50.6625 !    49.8950 !  -382.0173 !  -156.6512 !  -230.4209 !
 !    68.5500 !    50.6625 !    49.9676 !  -381.9456 !  -156.4312 !  -230.2753 !
 !    69.5000 !    50.6625 !    50.0402 !  -381.8738 !  -156.2114 !  -230.1299 !
 !    70.4500 !    50.6625 !    50.1126 !  -381.8018 !  -155.9918 !  -229.9847 !
 !    71.4000 !    50.6625 !    50.1850 !  -381.7297 !  -155.7725 !  -229.8397 !
 !------------+------------+------------+------------+------------+------------!
 !    72.3500 !    50.6625 !    50.2573 !  -381.6575 !  -155.5535 !  -229.6949 !
 !    73.3000 !    50.6625 !    50.3295 !  -381.5851 !  -155.3346 !  -229.5503 !
 !    74.2500 !    50.6625 !    50.4016 !  -381.5125 !  -155.1161 !  -229.4059 !
 !    75.2000 !    50.6625 !    50.4737 !  -381.4398 !  -154.8978 !  -229.2617 !
 !    76.1500 !    50.6625 !    50.5457 !  -381.3670 !  -154.6797 !  -229.1176 !
 !------------+------------+------------+------------+------------+------------!
 !    77.1000 !    50.6625 !    50.6176 !  -381.2940 !  -154.4619 !  -228.9738 !
 !    78.0500 !    50.6625 !    50.6894 !  -381.2209 !  -154.2443 !  -228.8302 !
 !    79.0000 !    50.6625 !    50.7612 !  -381.1477 !  -154.0270 !  -228.6867 !
 !    79.9500 !    50.6625 !    50.8329 !  -381.0743 !  -153.8099 !  -228.5434 !
 !    80.9000 !    50.6625 !    50.9045 !  -381.0007 !  -153.5930 !  -228.4003 !
 !------------+------------+------------+------------+------------+------------!
 !    81.8500 !    50.6625 !    50.9760 !  -380.9270 !  -153.3765 !  -228.2574 !
 !    82.8000 !    50.6625 !    51.0475 !  -380.8532 !  -153.1601 !  -228.1147 !
 !    83.7500 !    50.6625 !    51.1189 !  -380.7793 !  -152.9440 !  -227.9722 !
 !    84.7000 !    50.6625 !    51.1902 !  -380.7052 !  -152.7282 !  -227.8299 !
 !    85.6500 !    50.6625 !    51.2614 !  -380.6310 !  -152.5125 !  -227.6877 !
 !------------+------------+------------+------------+------------+------------!
 !    86.6000 !    50.6625 !    51.3326 !  -380.5566 !  -152.2972 !  -227.5458 !
 !    87.5500 !    50.6625 !    51.4036 !  -380.4821 !  -152.0821 !  -227.4040 !
 !    88.5000 !    50.6625 !    51.4747 !  -380.4074 !  -151.8672 !  -227.2624 !
 !    89.4500 !    50.6625 !    51.5456 !  -380.3327 !  -151.6526 !  -227.1210 !
 !    90.4000 !    50.6625 !    51.6165 !  -380.2577 !  -151.4382 !  -226.9798 !
 -------------------------------------------------------------------------------
 ASPEN PLUS   PLAT: WIN-X64   VER: 38.0                   12/31/2025  PAGE 15      
                                                                                
                        PHYSICAL PROPERTY TABLES SECTION                        

 PROPERTIES TABLE:   PURE-G (CONTINUED)              

 -------------------------------------------------------------------------------
 !  TEMP      !  PRES      !  G         !  G         !  G         !  G         !
 !            !            !  LIQUID    !  LIQUID    !  LIQUID    !  LIQUID    !
 !            !            !  COMP1     !  COMP2     !  COMP3     !  COMP4     !
 !            !            !            !            !            !            !
 !  C         !  BAR       !  KJ/MOL    !  KJ/MOL    !  KJ/MOL    !  KJ/MOL    !
 !            !            !            !            !            !            !
 !============!============!============!============!============!============!
 !    91.3500 !    50.6625 !    51.6873 !  -380.1827 !  -151.2240 !  -226.8387 !
 !    92.3000 !    50.6625 !    51.7580 !  -380.1075 !  -151.0101 !  -226.6978 !
 !    93.2500 !    50.6625 !    51.8286 !  -380.0322 !  -150.7965 !  -226.5572 !
 !    94.2000 !    50.6625 !    51.8992 !  -379.9567 !  -150.5831 !  -226.4167 !
 !    95.1500 !    50.6625 !    51.9697 !  -379.8812 !  -150.3699 !  -226.2763 !
 !------------+------------+------------+------------+------------+------------!
 !    96.1000 !    50.6625 !    52.0402 !  -379.8054 !  -150.1570 !  -226.1362 !
 !    97.0500 !    50.6625 !    52.1105 !  -379.7296 !  -149.9443 !  -225.9962 !
 !    98.0000 !    50.6625 !    52.1808 !  -379.6536 !  -149.7319 !  -225.8565 !
 !    98.9500 !    50.6625 !    52.2510 !  -379.5775 !  -149.5197 !  -225.7169 !
 !    99.9000 !    50.6625 !    52.3212 !  -379.5012 !  -149.3077 !  -225.5774 !
 !------------+------------+------------+------------+------------+------------!
 !   100.8500 !    50.6625 !    52.3912 !  -379.4249 !  -149.0960 !  -225.4382 !
 !   101.8000 !    50.6625 !    52.4612 !  -379.3484 !  -148.8846 !  -225.2991 !
 !   102.7500 !    50.6625 !    52.5312 !  -379.2717 !  -148.6733 !  -225.1602 !
 !   103.7000 !    50.6625 !    52.6010 !  -379.1950 !  -148.4624 !  -225.0215 !
 !   104.6500 !    50.6625 !    52.6708 !  -379.1181 !  -148.2516 !  -224.8830 !
 !------------+------------+------------+------------+------------+------------!
 !   105.6000 !    50.6625 !    52.7405 !  -379.0411 !  -148.0411 !  -224.7446 !
 !   106.5500 !    50.6625 !    52.8102 !  -378.9639 !  -147.8309 !  -224.6064 !
 !   107.5000 !    50.6625 !    52.8798 !  -378.8866 !  -147.6209 !  -224.4684 !
 !   108.4500 !    50.6625 !    52.9493 !  -378.8093 !  -147.4111 !  -224.3306 !
 !   109.4000 !    50.6625 !    53.0187 !  -378.7317 !  -147.2016 !  -224.1929 !
 !------------+------------+------------+------------+------------+------------!
 !   110.3500 !    50.6625 !    53.0881 !  -378.6541 !  -146.9923 !  -224.0554 !
 !   111.3000 !    50.6625 !    53.1574 !  -378.5763 !  -146.7833 !  -223.9181 !
 !   112.2500 !    50.6625 !    53.2266 !  -378.4984 !  -146.5745 !  -223.7810 !
 !   113.2000 !    50.6625 !    53.2958 !  -378.4204 !  -146.3660 !  -223.6440 !
 !   114.1500 !    50.6625 !    53.3649 !  -378.3423 !  -146.1577 !  -223.5072 !
 !------------+------------+------------+------------+------------+------------!
 !   115.1000 !    50.6625 !    53.4339 !  -378.2640 !  -145.9496 !  -223.3706 !
 !   116.0500 !    50.6625 !    53.5029 !  -378.1856 !  -145.7418 !  -223.2341 !
 !   117.0000 !    50.6625 !    53.5717 !  -378.1071 !  -145.5342 !  -223.0978 !
 !   117.9500 !    50.6625 !    53.6406 !  -378.0285 !  -145.3268 !  -222.9617 !
 !   118.9000 !    50.6625 !    53.7093 !  -377.9497 !  -145.1198 !  -222.8258 !
 !------------+------------+------------+------------+------------+------------!
 !   119.8500 !    50.6625 !    53.7780 !  -377.8709 !  -144.9129 !  -222.6900 !
 !   120.8000 !    50.6625 !    53.8466 !  -377.7919 !  -144.7063 !  -222.5544 !
 !   121.7500 !    50.6625 !    53.9152 !  -377.7128 !  -144.4999 !  -222.4190 !
 !   122.7000 !    50.6625 !    53.9836 !  -377.6335 !  -144.2938 !  -222.2837 !
 !   123.6500 !    50.6625 !    54.0521 !  -377.5542 !  -144.0879 !  -222.1486 !
 -------------------------------------------------------------------------------
 ASPEN PLUS   PLAT: WIN-X64   VER: 38.0                   12/31/2025  PAGE 16      
                                                                                
                        PHYSICAL PROPERTY TABLES SECTION                        

 PROPERTIES TABLE:   PURE-G (CONTINUED)              

 -------------------------------------------------------------------------------
 !  TEMP      !  PRES      !  G         !  G         !  G         !  G         !
 !            !            !  LIQUID    !  LIQUID    !  LIQUID    !  LIQUID    !
 !            !            !  COMP1     !  COMP2     !  COMP3     !  COMP4     !
 !            !            !            !            !            !            !
 !  C         !  BAR       !  KJ/MOL    !  KJ/MOL    !  KJ/MOL    !  KJ/MOL    !
 !            !            !            !            !            !            !
 !============!============!============!============!============!============!
 !   124.6000 !    50.6625 !    54.1204 !  -377.4747 !  -143.8823 !  -222.0137 !
 !   125.5500 !    50.6625 !    54.1887 !  -377.3952 !  -143.6769 !  -221.8789 !
 !   126.5000 !    50.6625 !    54.2569 !  -377.3155 !  -143.4717 !  -221.7443 !
 !   127.4500 !    50.6625 !    54.3250 !  -377.2357 !  -143.2668 !  -221.6099 !
 !   128.4000 !    50.6625 !    54.3931 !  -377.1558 !  -143.0621 !  -221.4756 !
 !------------+------------+------------+------------+------------+------------!
 !   129.3500 !    50.6625 !    54.4611 !  -377.0757 !  -142.8577 !  -221.3415 !
 !   130.3000 !    50.6625 !    54.5291 !  -376.9956 !  -142.6535 !  -221.2076 !
 !   131.2500 !    50.6625 !    54.5969 !  -376.9153 !  -142.4496 !  -221.0739 !
 !   132.2000 !    50.6625 !    54.6648 !  -376.8350 !  -142.2459 !  -220.9403 !
 !   133.1500 !    50.6625 !    54.7325 !  -376.7545 !  -142.0424 !  -220.8068 !
 !------------+------------+------------+------------+------------+------------!
 !   134.1000 !    50.6625 !    54.8002 !  -376.6739 !  -141.8392 !  -220.6736 !
 !   135.0500 !    50.6625 !    54.8678 !  -376.5932 !  -141.6362 !  -220.5405 !
 !   136.0000 !    50.6625 !    54.9354 !  -376.5124 !  -141.4335 !  -220.4075 !
 !   136.9500 !    50.6625 !    55.0028 !  -376.4315 !  -141.2310 !  -220.2748 !
 !   137.9000 !    50.6625 !    55.0703 !  -376.3504 !  -141.0287 !  -220.1422 !
 !------------+------------+------------+------------+------------+------------!
 !   138.8500 !    50.6625 !    55.1376 !  -376.2693 !  -140.8267 !  -220.0097 !
 !   139.8000 !    50.6625 !    55.2049 !  -376.1880 !  -140.6250 !  -219.8774 !
 !   140.7500 !    50.6625 !    55.2721 !  -376.1067 !  -140.4235 !  -219.7453 !
 !   141.7000 !    50.6625 !    55.3393 !  -376.0252 !  -140.2222 !  -219.6134 !
 !   142.6500 !    50.6625 !    55.4064 !  -375.9437 !  -140.0212 !  -219.4816 !
 !------------+------------+------------+------------+------------+------------!
 !   143.6000 !    50.6625 !    55.4734 !  -375.8620 !  -139.8204 !  -219.3499 !
 !   144.5500 !    50.6625 !    55.5404 !  -375.7802 !  -139.6198 !  -219.2185 !
 !   145.5000 !    50.6625 !    55.6073 !  -375.6983 !  -139.4195 !  -219.0872 !
 !   146.4500 !    50.6625 !    55.6741 !  -375.6164 !  -139.2194 !  -218.9560 !
 !   147.4000 !    50.6625 !    55.7409 !  -375.5343 !  -139.0196 !  -218.8250 !
 !------------+------------+------------+------------+------------+------------!
 !   148.3500 !    50.6625 !    55.8076 !  -375.4521 !  -138.8201 !  -218.6942 !
 !   149.3000 !    50.6625 !    55.8743 !  -375.3698 !  -138.6207 !  -218.5636 !
 !   150.2500 !    50.6625 !    55.9409 !  -375.2874 !  -138.4216 !  -218.4331 !
 !   151.2000 !    50.6625 !    56.0074 !  -375.2049 !  -138.2228 !  -218.3027 !
 !   152.1500 !    50.6625 !    56.0738 !  -375.1223 !  -138.0242 !  -218.1725 !
 !------------+------------+------------+------------+------------+------------!
 !   153.1000 !    50.6625 !    56.1402 !  -375.0396 !  -137.8258 !  -218.0425 !
 !   154.0500 !    50.6625 !    56.2066 !  -374.9568 !  -137.6277 !  -217.9126 !
 !   155.0000 !    50.6625 !    56.2728 !  -374.8739 !  -137.4299 !  -217.7829 !
 !   155.9500 !    50.6625 !    56.3391 !  -374.7910 !  -137.2322 !  -217.6534 !
 !   156.9000 !    50.6625 !    56.4052 !  -374.7079 !  -137.0349 !  -217.5240 !
 -------------------------------------------------------------------------------
 ASPEN PLUS   PLAT: WIN-X64   VER: 38.0                   12/31/2025  PAGE 17      
                                                                                
                        PHYSICAL PROPERTY TABLES SECTION                        

 PROPERTIES TABLE:   PURE-G (CONTINUED)              

 -------------------------------------------------------------------------------
 !  TEMP      !  PRES      !  G         !  G         !  G         !  G         !
 !            !            !  LIQUID    !  LIQUID    !  LIQUID    !  LIQUID    !
 !            !            !  COMP1     !  COMP2     !  COMP3     !  COMP4     !
 !            !            !            !            !            !            !
 !  C         !  BAR       !  KJ/MOL    !  KJ/MOL    !  KJ/MOL    !  KJ/MOL    !
 !            !            !            !            !            !            !
 !============!============!============!============!============!============!
 !   157.8500 !    50.6625 !    56.4713 !  -374.6247 !  -136.8377 !  -217.3948 !
 !   158.8000 !    50.6625 !    56.5373 !  -374.5414 !  -136.6408 !  -217.2657 !
 !   159.7500 !    50.6625 !    56.6033 !  -374.4580 !  -136.4442 !  -217.1368 !
 !   160.7000 !    50.6625 !    56.6692 !  -374.3746 !  -136.2478 !  -217.0080 !
 !   161.6500 !    50.6625 !    56.7350 !  -374.2910 !  -136.0516 !  -216.8794 !
 !------------+------------+------------+------------+------------+------------!
 !   162.6000 !    50.6625 !    56.8008 !  -374.2074 !  -135.8557 !  -216.7510 !
 !   163.5500 !    50.6625 !    56.8665 !  -374.1236 !  -135.6600 !  -216.6227 !
 !   164.5000 !    50.6625 !    56.9322 !  -374.0398 !  -135.4646 !  -216.4946 !
 !   165.4500 !    50.6625 !    56.9977 !  -373.9558 !  -135.2694 !  -216.3666 !
 !   166.4000 !    50.6625 !    57.0633 !  -373.8718 !  -135.0745 !  -216.2388 !
 !------------+------------+------------+------------+------------+------------!
 !   167.3500 !    50.6625 !    57.1288 !  -373.7877 !  -134.8798 !  -216.1111 !
 !   168.3000 !    50.6625 !    57.1942 !  -373.7035 !  -134.6854 !  -215.9836 !
 !   169.2500 !    50.6625 !    57.2595 !  -373.6192 !  -134.4912 !  -215.8563 !
 !   170.2000 !    50.6625 !    57.3248 !  -373.5348 !  -134.2972 !  -215.7291 !
 !   171.1500 !    50.6625 !    57.3900 !  -373.4503 !  -134.1035 !  -215.6020 !
 !------------+------------+------------+------------+------------+------------!
 !   172.1000 !    50.6625 !    57.4552 !  -373.3658 !  -133.9100 !  -215.4751 !
 !   173.0500 !    50.6625 !    57.5203 !  -373.2811 !  -133.7168 !  -215.3484 !
 !   174.0000 !    50.6625 !    57.5854 !  -373.1964 !  -133.5239 !  -215.2218 !
 !   174.9500 !    50.6625 !    57.6503 !  -373.1116 !  -133.3311 !  -215.0954 !
 !   175.9000 !    50.6625 !    57.7153 !  -373.0266 !  -133.1387 !  -214.9691 !
 !------------+------------+------------+------------+------------+------------!
 !   176.8500 !    50.6625 !    57.7801 !  -372.9417 !  -132.9464 !  -214.8430 !
 !   177.8000 !    50.6625 !    57.8449 !  -372.8566 !  -132.7545 !  -214.7171 !
 !   178.7500 !    50.6625 !    57.9097 !  -372.7714 !  -132.5627 !  -214.5912 !
 !   179.7000 !    50.6625 !    57.9744 !  -372.6862 !  -132.3713 !  -214.4656 !
 !   180.6500 !    50.6625 !    58.0390 !  -372.6008 !  -132.1800 !  -214.3401 !
 !------------+------------+------------+------------+------------+------------!
 !   181.6000 !    50.6625 !    58.1036 !  -372.5154 !  -131.9890 !  -214.2147 !
 !   182.5500 !    50.6625 !    58.1681 !  -372.4299 !  -131.7983 !  -214.0895 !
 !   183.5000 !    50.6625 !    58.2326 !  -372.3444 !  -131.6078 !  -213.9645 !
 !   184.4500 !    50.6625 !    58.2970 !  -372.2587 !  -131.4175 !  -213.8396 !
 !   185.4000 !    50.6625 !    58.3613 !  -372.1730 !  -131.2276 !  -213.7148 !
 !------------+------------+------------+------------+------------+------------!
 !   186.3500 !    50.6625 !    58.4256 !  -372.0871 !  -131.0378 !  -213.5903 !
 !   187.3000 !    50.6625 !    58.4898 !  -372.0012 !  -130.8483 !  -213.4658 !
 !   188.2500 !    50.6625 !    58.5540 !  -371.9153 !  -130.6591 !  -213.3415 !
 !   189.2000 !    50.6625 !    58.6181 !  -371.8292 !  -130.4701 !  -213.2174 !
 !   190.1500 !    50.6625 !    58.6821 !  -371.7431 !  -130.2813 !  -213.0934 !
 -------------------------------------------------------------------------------
 ASPEN PLUS   PLAT: WIN-X64   VER: 38.0                   12/31/2025  PAGE 18      
                                                                                
                        PHYSICAL PROPERTY TABLES SECTION                        

 PROPERTIES TABLE:   PURE-G (CONTINUED)              

 -------------------------------------------------------------------------------
 !  TEMP      !  PRES      !  G         !  G         !  G         !  G         !
 !            !            !  LIQUID    !  LIQUID    !  LIQUID    !  LIQUID    !
 !            !            !  COMP1     !  COMP2     !  COMP3     !  COMP4     !
 !            !            !            !            !            !            !
 !  C         !  BAR       !  KJ/MOL    !  KJ/MOL    !  KJ/MOL    !  KJ/MOL    !
 !            !            !            !            !            !            !
 !============!============!============!============!============!============!
 !   191.1000 !    50.6625 !    58.7461 !  -371.6569 !  -130.0928 !  -212.9696 !
 !   192.0500 !    50.6625 !    58.8100 !  -371.5706 !  -129.9046 !  -212.8459 !
 !   193.0000 !    50.6625 !    58.8739 !  -371.4842 !  -129.7166 !  -212.7223 !
 !   193.9500 !    50.6625 !    58.9377 !  -371.3978 !  -129.5288 !  -212.5989 !
 !   194.9000 !    50.6625 !    59.0015 !  -371.3113 !  -129.3413 !  -212.4757 !
 !------------+------------+------------+------------+------------+------------!
 !   195.8500 !    50.6625 !    59.0652 !  -371.2247 !  -129.1541 !  -212.3526 !
 !   196.8000 !    50.6625 !    59.1288 !  -371.1381 !  -128.9671 !  -212.2297 !
 !   197.7500 !    50.6625 !    59.1924 !  -371.0513 !  -128.7804 !  -212.1069 !
 !   198.7000 !    50.6625 !    59.2560 !  -370.9645 !  -128.5939 !  -211.9842 !
 !   199.6500 !    50.6625 !    59.3194 !  -370.8777 !  -128.4077 !  -211.8617 !
 !------------+------------+------------+------------+------------+------------!
 !   200.6000 !    50.6625 !    59.3828 !  -370.7907 !  -128.2217 !  -211.7394 !
 !   201.5500 !    50.6625 !    59.4462 !  -370.7037 !  -128.0359 !  -211.6172 !
 !   202.5000 !    50.6625 !    59.5095 !  -370.6166 !  -127.8505 !  -211.4952 !
 !   203.4500 !    50.6625 !    59.5728 !  -370.5295 !  -127.6653 !  -211.3733 !
 !   204.4000 !    50.6625 !    59.6360 !  -370.4422 !  -127.4803 !  -211.2515 !
 !------------+------------+------------+------------+------------+------------!
 !   205.3500 !    50.6625 !    59.6991 !  -370.3549 !  -127.2956 !  -211.1299 !
 !   206.3000 !    50.6625 !    59.7622 !  -370.2676 !  -127.1111 !  -211.0084 !
 !   207.2500 !    50.6625 !    59.8252 !  -370.1801 !  -126.9269 !  -210.8871 !
 !   208.2000 !    50.6625 !    59.8882 !  -370.0926 !  -126.7430 !  -210.7660 !
 !   209.1500 !    50.6625 !    59.9511 !  -370.0051 !  -126.5593 !  -210.6449 !
 !------------+------------+------------+------------+------------+------------!
 !   210.1000 !    50.6625 !    60.0139 !  -369.9174 !  -126.3759 !  -210.5241 !
 !   211.0500 !    50.6625 !    60.0767 !  -369.8298 !  -126.1927 !  -210.4033 !
 !   212.0000 !    50.6625 !    60.1395 !  -369.7420 !  -126.0098 !  -210.2828 !
 !   212.9500 !    50.6625 !    60.2022 !  -369.6542 !  -125.8272 !  -210.1623 !
 !   213.9000 !    50.6625 !    60.2648 !  -369.5663 !  -125.6448 !  -210.0420 !
 !------------+------------+------------+------------+------------+------------!
 !   214.8500 !    50.6625 !    60.3274 !  -369.4783 !  -125.4626 !  -209.9219 !
 -------------------------------------------------------------------------------
 ASPEN PLUS   PLAT: WIN-X64   VER: 38.0                   12/31/2025  PAGE 19      
                                                                                
                        PHYSICAL PROPERTY TABLES SECTION                        

 FLASH CURVE TABLE:  MIX-1               
 -------------------------

   PROPERTIES ALONG A FLASH CURVE FOR THE MIXTURE:  (KMOL/HR     )
       COMP1     9.094     , COMP2     3.031     , COMP3     1.000    
       COMP4     1.000     , 

   VARIED VARIABLE(S):    PRES      TEMP    

   PROPERTY SET(S):       PS-1    

   2 PHASE TP FLASHES WERE PERFORMED.

   PROPERTY OPTION SET:   NRTL      RENON (NRTL) / PR-MHV2                      
 ASPEN PLUS   PLAT: WIN-X64   VER: 38.0                   12/31/2025  PAGE 20      
                                                                                
                        PHYSICAL PROPERTY TABLES SECTION                        

 FLASH CURVE TABLE:  MIX-1 (CONTINUED)               

 ----------------------------------------
 !  PRES      !  TEMP      !  AVAILMX   !
 !            !            !  TOTAL     !
 !            !            !            !
 !            !            !            !
 !  BAR       !  C         !  KJ/MOL    !
 !            !            !            !
 !============!============!============!
 !     1.0133 !    24.8500 !  -114.8486 !
 !     1.0133 !    34.8500 !  -114.8172 !
 !     1.0133 !    44.8500 !  -114.7452 !
 !     1.0133 !    54.8500 !  -114.7202 !
 !     1.0133 !    64.8500 !  -114.6860 !
 !------------+------------+------------!
 !     1.0133 !    74.8500 !  -114.6432 !
 !     1.0133 !    84.8500 !  -114.5919 !
 !     1.0133 !    94.8500 !  -114.5328 !
 !     1.0133 !   104.8500 !  -114.4660 !
 !     1.0133 !   114.8500 !  -114.3918 !
 !------------+------------+------------!
 !     1.0133 !   124.8500 !  -114.3107 !
 !     1.0133 !   134.8500 !  -114.2229 !
 !     1.0133 !   144.8500 !  -114.1286 !
 !     1.0133 !   154.8500 !  -114.0280 !
 !     1.0133 !   164.8500 !  -113.9215 !
 !------------+------------+------------!
 !     1.0133 !   174.8500 !  -113.8093 !
 !     1.0133 !   184.8500 !  -113.6914 !
 !     1.0133 !   194.8500 !  -113.5682 !
 !     1.0133 !   204.8500 !  -113.4398 !
 !     1.0133 !   214.8500 !  -113.3064 !
 !------------+------------+------------!
 !     5.0663 !    24.8500 !  -111.2799 !
 !     5.0663 !    34.8500 !  -111.2617 !
 !     5.0663 !    44.8500 !  -111.2057 !
 !     5.0663 !    54.8500 !  -111.1005 !
 !     5.0663 !    64.8500 !  -110.9351 !
 !------------+------------+------------!
 !     5.0663 !    74.8500 !  -110.6917 !
 !     5.0663 !    84.8500 !  -110.6314 !
 !     5.0663 !    94.8500 !  -110.5718 !
 !     5.0663 !   104.8500 !  -110.5047 !
 !     5.0663 !   114.8500 !  -110.4304 !
 !------------+------------+------------!
 !     5.0663 !   124.8500 !  -110.3493 !
 !     5.0663 !   134.8500 !  -110.2615 !
 !     5.0663 !   144.8500 !  -110.1673 !
 !     5.0663 !   154.8500 !  -110.0670 !
 !     5.0663 !   164.8500 !  -109.9608 !
 ----------------------------------------
 ASPEN PLUS   PLAT: WIN-X64   VER: 38.0                   12/31/2025  PAGE 21      
                                                                                
                        PHYSICAL PROPERTY TABLES SECTION                        

 FLASH CURVE TABLE:  MIX-1 (CONTINUED)               

 ----------------------------------------
 !  PRES      !  TEMP      !  AVAILMX   !
 !            !            !  TOTAL     !
 !            !            !            !
 !            !            !            !
 !  BAR       !  C         !  KJ/MOL    !
 !            !            !            !
 !============!============!============!
 !     5.0663 !   174.8500 !  -109.8489 !
 !     5.0663 !   184.8500 !  -109.7316 !
 !     5.0663 !   194.8500 !  -109.6089 !
 !     5.0663 !   204.8500 !  -109.4811 !
 !     5.0663 !   214.8500 !  -109.3484 !
 !------------+------------+------------!
 !    10.1325 !    24.8500 !  -109.8075 !
 !    10.1325 !    34.8500 !  -109.7909 !
 !    10.1325 !    44.8500 !  -109.7463 !
 !    10.1325 !    54.8500 !  -109.6669 !
 !    10.1325 !    64.8500 !  -109.5427 !
 !------------+------------+------------!
 !    10.1325 !    74.8500 !  -109.3640 !
 !    10.1325 !    84.8500 !  -109.1217 !
 !    10.1325 !    94.8500 !  -108.8861 !
 !    10.1325 !   104.8500 !  -108.8181 !
 !    10.1325 !   114.8500 !  -108.7430 !
 !------------+------------+------------!
 !    10.1325 !   124.8500 !  -108.6613 !
 !    10.1325 !   134.8500 !  -108.5730 !
 !    10.1325 !   144.8500 !  -108.4785 !
 !    10.1325 !   154.8500 !  -108.3779 !
 !    10.1325 !   164.8500 !  -108.2716 !
 !------------+------------+------------!
 !    10.1325 !   174.8500 !  -108.1597 !
 !    10.1325 !   184.8500 !  -108.0425 !
 !    10.1325 !   194.8500 !  -107.9200 !
 !    10.1325 !   204.8500 !  -107.7924 !
 !    10.1325 !   214.8500 !  -107.6600 !
 !------------+------------+------------!
 !    25.3313 !    24.8500 !  -107.9118 !
 !    25.3313 !    34.8500 !  -107.8939 !
 !    25.3313 !    44.8500 !  -107.8529 !
 !    25.3313 !    54.8500 !  -107.7886 !
 !    25.3313 !    64.8500 !  -107.6975 !
 !------------+------------+------------!
 !    25.3313 !    74.8500 !  -107.5726 !
 !    25.3313 !    84.8500 !  -107.4056 !
 !    25.3313 !    94.8500 !  -107.1883 !
 !    25.3313 !   104.8500 !  -106.9143 !
 !    25.3313 !   114.8500 !  -106.5756 !
 ----------------------------------------
 ASPEN PLUS   PLAT: WIN-X64   VER: 38.0                   12/31/2025  PAGE 22      
                                                                                
                        PHYSICAL PROPERTY TABLES SECTION                        

 FLASH CURVE TABLE:  MIX-1 (CONTINUED)               

 ----------------------------------------
 !  PRES      !  TEMP      !  AVAILMX   !
 !            !            !  TOTAL     !
 !            !            !            !
 !            !            !            !
 !  BAR       !  C         !  KJ/MOL    !
 !            !            !            !
 !============!============!============!
 !    25.3313 !   124.8500 !  -106.4743 !
 !    25.3313 !   134.8500 !  -106.3840 !
 !    25.3313 !   144.8500 !  -106.2878 !
 !    25.3313 !   154.8500 !  -106.1860 !
 !    25.3313 !   164.8500 !  -106.0787 !
 !------------+------------+------------!
 !    25.3313 !   174.8500 !  -105.9662 !
 !    25.3313 !   184.8500 !  -105.8485 !
 !    25.3313 !   194.8500 !  -105.7259 !
 !    25.3313 !   204.8500 !  -105.5985 !
 !    25.3313 !   214.8500 !  -105.4664 !
 !------------+------------+------------!
 !    50.6625 !    24.8500 !  -106.5268 !
 !    50.6625 !    34.8500 !  -106.5062 !
 !    50.6625 !    44.8500 !  -106.4628 !
 !    50.6625 !    54.8500 !  -106.3987 !
 !    50.6625 !    64.8500 !  -106.3140 !
 !------------+------------+------------!
 !    50.6625 !    74.8500 !  -106.2061 !
 !    50.6625 !    84.8500 !  -106.0702 !
 !    50.6625 !    94.8500 !  -105.9003 !
 !    50.6625 !   104.8500 !  -105.6893 !
 !    50.6625 !   114.8500 !  -105.4307 !
 !------------+------------+------------!
 !    50.6625 !   124.8500 !  -105.1191 !
 !    50.6625 !   134.8500 !  -104.7855 !
 !    50.6625 !   144.8500 !  -104.6851 !
 !    50.6625 !   154.8500 !  -104.5797 !
 !    50.6625 !   164.8500 !  -104.4693 !
 !------------+------------+------------!
 !    50.6625 !   174.8500 !  -104.3540 !
 !    50.6625 !   184.8500 !  -104.2341 !
 !    50.6625 !   194.8500 !  -104.1097 !
 !    50.6625 !   204.8500 !  -103.9807 !
 !    50.6625 !   214.8500 !  -103.8473 !
 ----------------------------------------
 ASPEN PLUS   PLAT: WIN-X64   VER: 38.0                   12/31/2025  PAGE 23      
                                                                                
                             PROBLEM STATUS SECTION                             

 BLOCK STATUS                            
 ------------

 ****************************************************************************
 *                                                                          *
 * Calculations were completed normally                                     *
 *                                                                          *
 * All Property Tables were completed normally                              *
 *                                                                          *
 ****************************************************************************
