                                                                                


 + + + + + + + + + + + + + + + + + + + + + + + + + + + + + + + + + + + + + + + +
 + + + + + + + + + + + + + + + + + + + + + + + + + + + + + + + + + + + + + + + +
 + +                                                                         + +
 + +                      ASPEN PLUS CALCULATION REPORT                      + +
 + +                                                                         + +
 + + + + + + + + + + + + + + + + + + + + + + + + + + + + + + + + + + + + + + + +
 + + + + + + + + + + + + + + + + + + + + + + + + + + + + + + + + + + + + + + + +

 ASPEN PLUS IS A TRADEMARK OF           HOTLINE:
 ASPEN TECHNOLOGY, INC.                 U.S.A. 888/996-7100
 781/221-6400                           EUROPE (44) 1189-226555

 PLATFORM: WIN-X64                                       DECEMBER 31, 2025   
 VERSION: 38.0   Build 380                               WEDNESDAY   
 INSTALLATION:                                           3:54:12 P.M.        

 ASPEN PLUS   PLAT: WIN-X64   VER: 38.0                   12/31/2025  PAGE    I
                                                                                



      ASPEN PLUS (R) IS A PROPRIETARY PRODUCT OF ASPEN TECHNOLOGY, INC.
      (ASPENTECH), AND MAY BE USED ONLY UNDER AGREEMENT WITH ASPENTECH.
      RESTRICTED RIGHTS LEGEND:  USE, REPRODUCTION, OR DISCLOSURE BY THE
      U.S. GOVERNMENT IS SUBJECT TO RESTRICTIONS SET FORTH IN 
      (i) FAR 52.227-14, Alt. III, (ii) FAR 52.227-19, (iii) DFARS 
      252.227-7013(c)(1)(ii), or (iv) THE ACCOMPANYING LICENSE AGREEMENT,
      AS APPLICABLE. FOR PURPOSES OF THE FAR, THIS SOFTWARE SHALL BE DEEMED
      TO BE "UNPUBLISHED" AND LICENSED WITH DISCLOSURE PROHIBITIONS.
      CONTRACTOR/SUBCONTRACTOR: ASPEN TECHNOLOGY, INC. 20 CROSBY DRIVE,
      BEDFORD, MA 01730.
                               TABLE OF CONTENTS                                


            RUN CONTROL SECTION....................................  1
                 RUN CONTROL INFORMATION...........................  1

            PHYSICAL PROPERTIES SECTION............................  2
                 COMPONENTS........................................  2

            PHYSICAL PROPERTY TABLES SECTION.......................  3
                 PROPERTIES TABLE:   PURE-B........................  3
                 PROPERTIES TABLE:   PURE-G........................  6
                 FLASH CURVE TABLE:  MIX-1......................... 19

            PROBLEM STATUS SECTION................................. 23
                 BLOCK STATUS...................................... 23
